data_image0
_chemical_formula_structural       OCOSeZn2SnSeSnCSeOC2OSnZnOCOSnSeO2Sn2COMgSnC2SnOSnC2OSnZnSeOC2O3SnSeCZnSeSnOSnSeOSnCOSnOCOSe2CO2Sn2CSnO2SnSeCOSn
_chemical_formula_sum              "O25 C18 Se11 Zn5 Sn20 Mg1"
_cell_length_a       15.3625
_cell_length_b       15.3625
_cell_length_c       15.3625
_cell_angle_alpha    90
_cell_angle_beta     90
_cell_angle_gamma    90

_space_group_name_H-M_alt    "P 1"
_space_group_IT_number       1

loop_
  _space_group_symop_operation_xyz
  'x, y, z'

loop_
  _atom_site_type_symbol
  _atom_site_label
  _atom_site_symmetry_multiplicity
  _atom_site_fract_x
  _atom_site_fract_y
  _atom_site_fract_z
  _atom_site_occupancy
  O   O1        1.0  0.02790  0.38030  0.11180  1.0000
  C   C1        1.0  0.05240  0.30240  0.12500  1.0000
  O   O2        1.0  0.13030  0.27790  0.13820  1.0000
  Se  Se1       1.0  0.00630  0.15460  0.13020  1.0000
  Zn  Zn1       1.0  0.14212  0.14212  0.14212  1.0000
  Zn  Zn2       1.0  0.89212  0.39212  0.10788  1.0000
  Sn  Sn1       1.0  0.75630  0.38020  0.09540  1.0000
  Se  Se2       1.0  0.73150  0.37500  0.01850  1.0000
  Sn  Sn2       1.0  0.90460  0.25630  0.11980  1.0000
  C   C2        1.0  0.98150  0.23150  0.12500  1.0000
  Se  Se3       1.0  0.88820  0.52790  0.11970  1.0000
  O   O3        1.0  0.88020  0.40460  0.24370  1.0000
  C   C3        1.0  0.87500  0.48150  0.26850  1.0000
  C   C4        1.0  0.87500  0.55240  0.19760  1.0000
  O   O4        1.0  0.86180  0.63030  0.22210  1.0000
  Sn  Sn3       1.0  0.86980  0.50630  0.34540  1.0000
  Zn  Zn3       1.0  0.85788  0.64212  0.35788  1.0000
  O   O5        1.0  0.88030  0.38820  0.97210  1.0000
  C   C5        1.0  0.80240  0.37500  0.94760  1.0000
  O   O6        1.0  0.77790  0.36180  0.86970  1.0000
  Sn  Sn4       1.0  0.65460  0.36980  0.99370  1.0000
  Se  Se4       1.0  0.64212  0.35788  0.85788  1.0000
  O   O7        1.0  0.63820  0.36970  0.72210  1.0000
  O   O8        1.0  0.63030  0.22210  0.86180  1.0000
  Sn  Sn5       1.0  0.63020  0.49370  0.84540  1.0000
  Sn  Sn6       1.0  0.50630  0.34540  0.86980  1.0000
  C   C6        1.0  0.01850  0.73150  0.37500  1.0000
  O   O9        1.0  0.09540  0.75630  0.38020  1.0000
  Mg  Mg1       1.0  0.10788  0.89212  0.39212  1.0000
  Sn  Sn7       1.0  0.86970  0.77790  0.36180  1.0000
  C   C7        1.0  0.99370  0.65460  0.36980  1.0000
  C   C8        1.0  0.94760  0.80240  0.37500  1.0000
  Sn  Sn8       1.0  0.97210  0.88030  0.38820  1.0000
  O   O10       1.0  0.72210  0.63820  0.36970  1.0000
  Sn  Sn9       1.0  0.84540  0.63020  0.49370  1.0000
  C   C9        1.0  0.76850  0.62500  0.51850  1.0000
  C   C10       1.0  0.69760  0.62500  0.44760  1.0000
  O   O11       1.0  0.61970  0.61180  0.47210  1.0000
  Sn  Sn10      1.0  0.74370  0.61980  0.59540  1.0000
  Zn  Zn4       1.0  0.60788  0.60788  0.60788  1.0000
  Se  Se5       1.0  0.47210  0.61970  0.61180  1.0000
  O   O12       1.0  0.59540  0.74370  0.61980  1.0000
  C   C11       1.0  0.51850  0.76850  0.62500  1.0000
  C   C12       1.0  0.44760  0.69760  0.62500  1.0000
  O   O13       1.0  0.36970  0.72210  0.63820  1.0000
  O   O14       1.0  0.49370  0.84540  0.63020  1.0000
  O   O15       1.0  0.61180  0.47210  0.61970  1.0000
  Sn  Sn11      1.0  0.61980  0.59540  0.74370  1.0000
  Se  Se6       1.0  0.62500  0.51850  0.76850  1.0000
  C   C13       1.0  0.62500  0.44760  0.69760  1.0000
  Zn  Zn5       1.0  0.35788  0.85788  0.64212  1.0000
  Se  Se7       1.0  0.48150  0.26850  0.87500  1.0000
  Sn  Sn12      1.0  0.55240  0.19760  0.87500  1.0000
  O   O16       1.0  0.52790  0.11970  0.88820  1.0000
  Sn  Sn13      1.0  0.40460  0.24370  0.88020  1.0000
  Se  Se8       1.0  0.39212  0.10788  0.89212  1.0000
  O   O17       1.0  0.27790  0.13820  0.13030  1.0000
  Sn  Sn14      1.0  0.15460  0.13020  0.00630  1.0000
  C   C14       1.0  0.30240  0.12500  0.05240  1.0000
  O   O18       1.0  0.38030  0.11180  0.02790  1.0000
  Sn  Sn15      1.0  0.13820  0.13030  0.27790  1.0000
  O   O19       1.0  0.13020  0.00630  0.15460  1.0000
  C   C15       1.0  0.12500  0.05240  0.30240  1.0000
  O   O20       1.0  0.11180  0.02790  0.38030  1.0000
  Se  Se9       1.0  0.23150  0.12500  0.98150  1.0000
  Se  Se10      1.0  0.25630  0.11980  0.90460  1.0000
  C   C16       1.0  0.12500  0.98150  0.23150  1.0000
  O   O21       1.0  0.11980  0.90460  0.25630  1.0000
  O   O22       1.0  0.38020  0.09540  0.75630  1.0000
  Sn  Sn16      1.0  0.37500  0.01850  0.73150  1.0000
  Sn  Sn17      1.0  0.38820  0.97210  0.88030  1.0000
  C   C17       1.0  0.37500  0.94760  0.80240  1.0000
  Sn  Sn18      1.0  0.36180  0.86970  0.77790  1.0000
  O   O23       1.0  0.36980  0.99370  0.65460  1.0000
  O   O24       1.0  0.11970  0.88820  0.52790  1.0000
  Sn  Sn19      1.0  0.24370  0.88020  0.40460  1.0000
  Se  Se11      1.0  0.26850  0.87500  0.48150  1.0000
  C   C18       1.0  0.19760  0.87500  0.55240  1.0000
  O   O25       1.0  0.22210  0.86180  0.63030  1.0000
  Sn  Sn20      1.0  0.34540  0.86980  0.50630  1.0000
